*SPEF "IEEE 1481-1998"
*DESIGN "fir_filter_mod_Nb14_N8_s7"
*DATE "Mon Nov 15 17:38:14 2021"
*VENDOR "Cadence Design Systems, Inc."
*PROGRAM "Innovus"
*VERSION "17.11-s080_1"
*DESIGN_FLOW "COUPLING C" "PIN_CAP NONE" "NAME_SCOPE LOCAL"
*DIVIDER /
*DELIMITER :
*BUS_DELIMITER []
*T_UNIT 1 NS
*C_UNIT 1 PF
*R_UNIT 1 OHM
*L_UNIT 1 HENRY

// MMMC spef file for corner 'my_rc'

*NAME_MAP

*1 FE_OFN1_Vin
*2 FE_OFN0_Vin
*3 FE_DBTN27_b0_13
*4 FE_DBTN26_b0_12
*5 FE_DBTN25_b0_11
*6 FE_DBTN24_b0_10
*7 FE_DBTN23_b0_9
*8 FE_DBTN22_b0_8
*9 FE_DBTN21_b0_7
*10 FE_DBTN20_b1_13
*11 FE_DBTN19_b1_12
*12 FE_DBTN18_b1_11
*13 FE_DBTN17_b1_10
*14 FE_DBTN16_b1_9
*15 FE_DBTN15_b1_8
*16 FE_DBTN14_b1_7
*17 FE_DBTN13_b2_13
*18 FE_DBTN12_b2_12
*19 FE_DBTN11_b2_11
*20 FE_DBTN10_b2_10
*21 FE_DBTN9_b2_9
*22 FE_DBTN8_b2_8
*23 FE_DBTN7_b2_7
*24 FE_DBTN6_b3_13
*25 FE_DBTN5_b3_12
*26 FE_DBTN4_b3_11
*27 FE_DBTN3_b3_10
*28 FE_DBTN2_b3_9
*29 FE_DBTN1_b3_8
*30 FE_DBTN0_b3_7
*31 Din[13]
*32 Din[12]
*33 Din[11]
*34 Din[10]
*35 Din[9]
*36 Din[8]
*37 Din[7]
*38 Din[6]
*39 Din[5]
*40 Din[4]
*41 Din[3]
*42 Din[2]
*43 Din[1]
*44 Din[0]
*45 b0[13]
*46 b0[12]
*47 b0[11]
*48 b0[10]
*49 b0[9]
*50 b0[8]
*51 b0[7]
*52 b0[6]
*53 b0[5]
*54 b0[4]
*55 b0[3]
*56 b0[2]
*57 b0[1]
*58 b0[0]
*59 b1[13]
*60 b1[12]
*61 b1[11]
*62 b1[10]
*63 b1[9]
*64 b1[8]
*65 b1[7]
*66 b1[6]
*67 b1[5]
*68 b1[4]
*69 b1[3]
*70 b1[2]
*71 b1[1]
*72 b1[0]
*73 b2[13]
*74 b2[12]
*75 b2[11]
*76 b2[10]
*77 b2[9]
*78 b2[8]
*79 b2[7]
*80 b2[6]
*81 b2[5]
*82 b2[4]
*83 b2[3]
*84 b2[2]
*85 b2[1]
*86 b2[0]
*87 b3[13]
*88 b3[12]
*89 b3[11]
*90 b3[10]
*91 b3[9]
*92 b3[8]
*93 b3[7]
*94 b3[6]
*95 b3[5]
*96 b3[4]
*97 b3[3]
*98 b3[2]
*99 b3[1]
*100 b3[0]
*101 b4[13]
*102 b4[12]
*103 b4[11]
*104 b4[10]
*105 b4[9]
*106 b4[8]
*107 b4[7]
*108 b4[6]
*109 b4[5]
*110 b4[4]
*111 b4[3]
*112 b4[2]
*113 b4[1]
*114 b4[0]
*115 Dout[13]
*116 Dout[12]
*117 Dout[11]
*118 Dout[10]
*119 Dout[9]
*120 Dout[8]
*121 Dout[7]
*122 Dout[6]
*123 Vin
*124 Rst_n
*125 Ck
*126 Vout
*127 REG0_0_n7
*128 REG0_0_n6
*129 REG0_0_n5
*130 REG0_0_n4
*131 REG0_0_n3
*132 REG0_0_n2
*133 REG0_0_n1
*134 REG0_0_n14
*135 REG0_0_n13
*136 REG0_0_n12
*137 REG0_0_n11
*138 REG0_0_n10
*139 REG0_0_n9
*140 REG0_0_n8
*141 REG0_0_n21
*142 REG0_0_n20
*143 REG0_0_n19
*144 REG0_0_n18
*145 REG0_0_n17
*146 REG0_0_n16
*147 REG0_0_n15
*148 REGi_1_n14
*149 REGi_1_n13
*150 REGi_1_n12
*151 REGi_1_n11
*152 REGi_1_n10
*153 REGi_1_n9
*154 REGi_1_n8
*155 REGi_1_n21
*156 REGi_1_n20
*157 REGi_1_n19
*158 REGi_1_n18
*159 REGi_1_n17
*160 REGi_1_n16
*161 REGi_1_n15
*162 REGi_1_n7
*163 REGi_1_n6
*164 REGi_1_n5
*165 REGi_1_n4
*166 REGi_1_n3
*167 REGi_1_n2
*168 REGi_1_n1
*169 REGi_2_n14
*170 REGi_2_n13
*171 REGi_2_n12
*172 REGi_2_n11
*173 REGi_2_n10
*174 REGi_2_n9
*175 REGi_2_n8
*176 REGi_2_n30
*177 REGi_2_n29
*178 REGi_2_n28
*179 REGi_2_n27
*180 REGi_2_n26
*181 REGi_2_n25
*182 REGi_2_n24
*183 REGi_2_n7
*184 REGi_2_n6
*185 REGi_2_n5
*186 REGi_2_n4
*187 REGi_2_n3
*188 REGi_2_n2
*189 REGi_2_n1
*190 REGi_3_n46
*191 REGi_3_n45
*192 REGi_3_n44
*193 REGi_3_n43
*194 REGi_3_n42
*195 REGi_3_n41
*196 REGi_3_n40
*197 REGi_3_n30
*198 REGi_3_n29
*199 REGi_3_n28
*200 REGi_3_n27
*201 REGi_3_n26
*202 REGi_3_n25
*203 REGi_3_n24
*204 REGi_3_n7
*205 REGi_3_n6
*206 REGi_3_n5
*207 REGi_3_n4
*208 REGi_3_n3
*209 REGi_3_n2
*210 REGi_3_n1
*211 REGi_4_n46
*212 REGi_4_n45
*213 REGi_4_n44
*214 REGi_4_n43
*215 REGi_4_n42
*216 REGi_4_n41
*217 REGi_4_n40
*218 REGi_4_n30
*219 REGi_4_n29
*220 REGi_4_n28
*221 REGi_4_n27
*222 REGi_4_n26
*223 REGi_4_n25
*224 REGi_4_n24
*225 REGi_4_n7
*226 REGi_4_n6
*227 REGi_4_n5
*228 REGi_4_n4
*229 REGi_4_n3
*230 REGi_4_n2
*231 REGi_4_n1
*232 REGi_5_n46
*233 REGi_5_n45
*234 REGi_5_n44
*235 REGi_5_n43
*236 REGi_5_n42
*237 REGi_5_n41
*238 REGi_5_n40
*239 REGi_5_n30
*240 REGi_5_n29
*241 REGi_5_n28
*242 REGi_5_n27
*243 REGi_5_n26
*244 REGi_5_n25
*245 REGi_5_n24
*246 REGi_5_n7
*247 REGi_5_n6
*248 REGi_5_n5
*249 REGi_5_n4
*250 REGi_5_n3
*251 REGi_5_n2
*252 REGi_5_n1
*253 REGi_6_n46
*254 REGi_6_n45
*255 REGi_6_n44
*256 REGi_6_n43
*257 REGi_6_n42
*258 REGi_6_n41
*259 REGi_6_n40
*260 REGi_6_n30
*261 REGi_6_n29
*262 REGi_6_n28
*263 REGi_6_n27
*264 REGi_6_n26
*265 REGi_6_n25
*266 REGi_6_n24
*267 REGi_6_n7
*268 REGi_6_n6
*269 REGi_6_n5
*270 REGi_6_n4
*271 REGi_6_n3
*272 REGi_6_n2
*273 REGi_6_n1
*274 REGi_7_n46
*275 REGi_7_n45
*276 REGi_7_n44
*277 REGi_7_n43
*278 REGi_7_n42
*279 REGi_7_n41
*280 REGi_7_n40
*281 REGi_7_n30
*282 REGi_7_n29
*283 REGi_7_n28
*284 REGi_7_n27
*285 REGi_7_n26
*286 REGi_7_n25
*287 REGi_7_n24
*288 REGi_7_n7
*289 REGi_7_n6
*290 REGi_7_n5
*291 REGi_7_n4
*292 REGi_7_n3
*293 REGi_7_n2
*294 REGi_7_n1
*295 REGi_8_n14
*296 REGi_8_n13
*297 REGi_8_n12
*298 REGi_8_n11
*299 REGi_8_n10
*300 REGi_8_n9
*301 REGi_8_n8
*302 REGi_8_n30
*303 REGi_8_n29
*304 REGi_8_n28
*305 REGi_8_n27
*306 REGi_8_n26
*307 REGi_8_n25
*308 REGi_8_n24
*309 REGi_8_n7
*310 REGi_8_n6
*311 REGi_8_n5
*312 REGi_8_n4
*313 REGi_8_n3
*314 REGi_8_n2
*315 REGi_8_n1
*316 proc_unit_n32
*317 proc_unit_n31
*318 proc_unit_n30
*319 proc_unit_n29
*320 proc_unit_n28
*321 proc_unit_n27
*322 proc_unit_n26
*323 proc_unit_n25
*324 proc_unit_N0
*325 proc_unit_N1
*326 proc_unit_N10
*327 proc_unit_N100
*328 proc_unit_N101
*329 proc_unit_N102
*330 proc_unit_N103
*331 proc_unit_N104
*332 proc_unit_N105
*333 proc_unit_N106
*334 proc_unit_N107
*335 proc_unit_N108
*336 proc_unit_N109
*337 proc_unit_N11
*338 proc_unit_N110
*339 proc_unit_N111
*340 proc_unit_N112
*341 proc_unit_N113
*342 proc_unit_N114
*343 proc_unit_N115
*344 proc_unit_N116
*345 proc_unit_N117
*346 proc_unit_N118
*347 proc_unit_N119
*348 proc_unit_N12
*349 proc_unit_N120
*350 proc_unit_N121
*351 proc_unit_N122
*352 proc_unit_N123
*353 proc_unit_N124
*354 proc_unit_N125
*355 proc_unit_N126
*356 proc_unit_N127
*357 proc_unit_N13
*358 proc_unit_N14
*359 proc_unit_N15
*360 proc_unit_N16
*361 proc_unit_N17
*362 proc_unit_N18
*363 proc_unit_N19
*364 proc_unit_N2
*365 proc_unit_N20
*366 proc_unit_N21
*367 proc_unit_N22
*368 proc_unit_N23
*369 proc_unit_N24
*370 proc_unit_N25
*371 proc_unit_N26
*372 proc_unit_N27
*373 proc_unit_N28
*374 proc_unit_N29
*375 proc_unit_N3
*376 proc_unit_N30
*377 proc_unit_N31
*378 proc_unit_N32
*379 proc_unit_N33
*380 proc_unit_N34
*381 proc_unit_N35
*382 proc_unit_N36
*383 proc_unit_N37
*384 proc_unit_N38
*385 proc_unit_N39
*386 proc_unit_N4
*387 proc_unit_N40
*388 proc_unit_N41
*389 proc_unit_N42
*390 proc_unit_N43
*391 proc_unit_N44
*392 proc_unit_N45
*393 proc_unit_N46
*394 proc_unit_N47
*395 proc_unit_N48
*396 proc_unit_N49
*397 proc_unit_N5
*398 proc_unit_N50
*399 proc_unit_N51
*400 proc_unit_N52
*401 proc_unit_N53
*402 proc_unit_N54
*403 proc_unit_N55
*404 proc_unit_N56
*405 proc_unit_N57
*406 proc_unit_N58
*407 proc_unit_N59
*408 proc_unit_N6
*409 proc_unit_N60
*410 proc_unit_N61
*411 proc_unit_N62
*412 proc_unit_N63
*413 proc_unit_N64
*414 proc_unit_N65
*415 proc_unit_N66
*416 proc_unit_N67
*417 proc_unit_N68
*418 proc_unit_N69
*419 proc_unit_N7
*420 proc_unit_N70
*421 proc_unit_N71
*422 proc_unit_N72
*423 proc_unit_N73
*424 proc_unit_N74
*425 proc_unit_N75
*426 proc_unit_N76
*427 proc_unit_N77
*428 proc_unit_N78
*429 proc_unit_N79
*430 proc_unit_N8
*431 proc_unit_N80
*432 proc_unit_N81
*433 proc_unit_N82
*434 proc_unit_N83
*435 proc_unit_N84
*436 proc_unit_N85
*437 proc_unit_N86
*438 proc_unit_N87
*439 proc_unit_N88
*440 proc_unit_N89
*441 proc_unit_N9
*442 proc_unit_N90
*443 proc_unit_N91
*444 proc_unit_N92
*445 proc_unit_N93
*446 proc_unit_N94
*447 proc_unit_N95
*448 proc_unit_N96
*449 proc_unit_N97
*450 proc_unit_N98
*451 proc_unit_N99
*452 proc_unit_n40
*453 proc_unit_n39
*454 proc_unit_n38
*455 proc_unit_n37
*456 proc_unit_n36
*457 proc_unit_n35
*458 proc_unit_n34
*459 proc_unit_n33
*460 proc_unit_n24
*461 proc_unit_n23
*462 proc_unit_n22
*463 proc_unit_n21
*464 proc_unit_n20
*465 proc_unit_n19
*466 proc_unit_n18
*467 proc_unit_n17
*468 proc_unit_N135
*469 proc_unit_N134
*470 proc_unit_N133
*471 proc_unit_N132
*472 proc_unit_N131
*473 proc_unit_N130
*474 proc_unit_N129
*475 proc_unit_N128
*476 proc_unit_add_0_root_add_32_I9_n1
*477 proc_unit_add_1_root_add_32_I9_n1
*478 proc_unit_add_2_root_add_32_I9_n1
*479 proc_unit_add_3_root_add_32_I9_n1
*480 proc_unit_add_4_root_add_32_I9_n1
*481 proc_unit_add_5_root_add_32_I9_n1
*482 proc_unit_add_6_root_add_32_I9_n1
*483 proc_unit_add_7_root_add_32_I9_n1
*484 proc_unit_mult_31_n193
*485 proc_unit_mult_31_n192
*486 proc_unit_mult_31_n191
*487 proc_unit_mult_31_n190
*488 proc_unit_mult_31_n189
*489 proc_unit_mult_31_n188
*490 proc_unit_mult_31_n187
*491 proc_unit_mult_31_n170
*492 proc_unit_mult_31_n169
*493 proc_unit_mult_31_n168
*494 proc_unit_mult_31_n167
*495 proc_unit_mult_31_n166
*496 proc_unit_mult_31_n165
*497 proc_unit_mult_31_n164
*498 proc_unit_mult_31_n163
*499 proc_unit_mult_31_n162
*500 proc_unit_mult_31_n161
*501 proc_unit_mult_31_n120
*502 proc_unit_mult_31_n119
*503 proc_unit_mult_31_n118
*504 proc_unit_mult_31_n117
*505 proc_unit_mult_31_n116
*506 proc_unit_mult_31_n115
*507 proc_unit_mult_31_n114
*508 proc_unit_mult_31_n113
*509 proc_unit_mult_31_n112
*510 proc_unit_mult_31_n111
*511 proc_unit_mult_31_n110
*512 proc_unit_mult_31_n109
*513 proc_unit_mult_31_n108
*514 proc_unit_mult_31_n107
*515 proc_unit_mult_31_n106
*516 proc_unit_mult_31_n105
*517 proc_unit_mult_31_n104
*518 proc_unit_mult_31_n103
*519 proc_unit_mult_31_n102
*520 proc_unit_mult_31_n101
*521 proc_unit_mult_31_n100
*522 proc_unit_mult_31_n99
*523 proc_unit_mult_31_n98
*524 proc_unit_mult_31_n97
*525 proc_unit_mult_31_n96
*526 proc_unit_mult_31_n95
*527 proc_unit_mult_31_n94
*528 proc_unit_mult_31_n93
*529 proc_unit_mult_31_n92
*530 proc_unit_mult_31_n91
*531 proc_unit_mult_31_n90
*532 proc_unit_mult_31_n89
*533 proc_unit_mult_31_n88
*534 proc_unit_mult_31_n87
*535 proc_unit_mult_31_n86
*536 proc_unit_mult_31_n85
*537 proc_unit_mult_31_n84
*538 proc_unit_mult_31_n83
*539 proc_unit_mult_31_n82
*540 proc_unit_mult_31_n81
*541 proc_unit_mult_31_n80
*542 proc_unit_mult_31_n79
*543 proc_unit_mult_31_n78
*544 proc_unit_mult_31_n77
*545 proc_unit_mult_31_n76
*546 proc_unit_mult_31_n75
*547 proc_unit_mult_31_n74
*548 proc_unit_mult_31_n73
*549 proc_unit_mult_31_n72
*550 proc_unit_mult_31_n71
*551 proc_unit_mult_31_n70
*552 proc_unit_mult_31_n69
*553 proc_unit_mult_31_n68
*554 proc_unit_mult_31_n67
*555 proc_unit_mult_31_n66
*556 proc_unit_mult_31_n65
*557 proc_unit_mult_31_n64
*558 proc_unit_mult_31_n63
*559 proc_unit_mult_31_n62
*560 proc_unit_mult_31_n61
*561 proc_unit_mult_31_n60
*562 proc_unit_mult_31_n59
*563 proc_unit_mult_31_n58
*564 proc_unit_mult_31_n57
*565 proc_unit_mult_31_n56
*566 proc_unit_mult_31_n55
*567 proc_unit_mult_31_n54
*568 proc_unit_mult_31_n53
*569 proc_unit_mult_31_n52
*570 proc_unit_mult_31_n51
*571 proc_unit_mult_31_n50
*572 proc_unit_mult_31_n49
*573 proc_unit_mult_31_n48
*574 proc_unit_mult_31_n47
*575 proc_unit_mult_31_n46
*576 proc_unit_mult_31_n45
*577 proc_unit_mult_31_n44
*578 proc_unit_mult_31_n43
*579 proc_unit_mult_31_n42
*580 proc_unit_mult_31_n41
*581 proc_unit_mult_31_n40
*582 proc_unit_mult_31_n39
*583 proc_unit_mult_31_n38
*584 proc_unit_mult_31_n37
*585 proc_unit_mult_31_n36
*586 proc_unit_mult_31_n35
*587 proc_unit_mult_31_n34
*588 proc_unit_mult_31_n33
*589 proc_unit_mult_31_n32
*590 proc_unit_mult_31_n31
*591 proc_unit_mult_31_n30
*592 proc_unit_mult_31_n29
*593 proc_unit_mult_31_n28
*594 proc_unit_mult_31_n27
*595 proc_unit_mult_31_n26
*596 proc_unit_mult_31_n25
*597 proc_unit_mult_31_n24
*598 proc_unit_mult_31_n23
*599 proc_unit_mult_31_n22
*600 proc_unit_mult_31_n21
*601 proc_unit_mult_31_n20
*602 proc_unit_mult_31_n19
*603 proc_unit_mult_31_n18
*604 proc_unit_mult_31_n17
*605 proc_unit_mult_31_n16
*606 proc_unit_mult_31_n15
*607 proc_unit_mult_31_n14
*608 proc_unit_mult_31_n13
*609 proc_unit_mult_31_n12
*610 proc_unit_mult_31_n11
*611 proc_unit_mult_31_n10
*612 proc_unit_mult_31_n9
*613 proc_unit_mult_31_n8
*614 proc_unit_mult_31_n7
*615 proc_unit_mult_31_n6
*616 proc_unit_mult_31_n5
*617 proc_unit_mult_31_n4
*618 proc_unit_mult_31_n3
*619 proc_unit_mult_31_n2
*620 proc_unit_mult_31_n1
*621 proc_unit_mult_31_I2_n196
*622 proc_unit_mult_31_I2_n195
*623 proc_unit_mult_31_I2_n194
*624 proc_unit_mult_31_I2_n193
*625 proc_unit_mult_31_I2_n192
*626 proc_unit_mult_31_I2_n191
*627 proc_unit_mult_31_I2_n190
*628 proc_unit_mult_31_I2_n173
*629 proc_unit_mult_31_I2_n172
*630 proc_unit_mult_31_I2_n171
*631 proc_unit_mult_31_I2_n170
*632 proc_unit_mult_31_I2_n169
*633 proc_unit_mult_31_I2_n168
*634 proc_unit_mult_31_I2_n167
*635 proc_unit_mult_31_I2_n166
*636 proc_unit_mult_31_I2_n165
*637 proc_unit_mult_31_I2_n164
*638 proc_unit_mult_31_I2_n163
*639 proc_unit_mult_31_I2_n162
*640 proc_unit_mult_31_I2_n120
*641 proc_unit_mult_31_I2_n119
*642 proc_unit_mult_31_I2_n118
*643 proc_unit_mult_31_I2_n117
*644 proc_unit_mult_31_I2_n116
*645 proc_unit_mult_31_I2_n115
*646 proc_unit_mult_31_I2_n114
*647 proc_unit_mult_31_I2_n113
*648 proc_unit_mult_31_I2_n112
*649 proc_unit_mult_31_I2_n111
*650 proc_unit_mult_31_I2_n110
*651 proc_unit_mult_31_I2_n109
*652 proc_unit_mult_31_I2_n108
*653 proc_unit_mult_31_I2_n107
*654 proc_unit_mult_31_I2_n106
*655 proc_unit_mult_31_I2_n105
*656 proc_unit_mult_31_I2_n104
*657 proc_unit_mult_31_I2_n103
*658 proc_unit_mult_31_I2_n102
*659 proc_unit_mult_31_I2_n101
*660 proc_unit_mult_31_I2_n100
*661 proc_unit_mult_31_I2_n99
*662 proc_unit_mult_31_I2_n98
*663 proc_unit_mult_31_I2_n97
*664 proc_unit_mult_31_I2_n96
*665 proc_unit_mult_31_I2_n95
*666 proc_unit_mult_31_I2_n94
*667 proc_unit_mult_31_I2_n93
*668 proc_unit_mult_31_I2_n92
*669 proc_unit_mult_31_I2_n91
*670 proc_unit_mult_31_I2_n90
*671 proc_unit_mult_31_I2_n89
*672 proc_unit_mult_31_I2_n88
*673 proc_unit_mult_31_I2_n87
*674 proc_unit_mult_31_I2_n86
*675 proc_unit_mult_31_I2_n85
*676 proc_unit_mult_31_I2_n84
*677 proc_unit_mult_31_I2_n83
*678 proc_unit_mult_31_I2_n82
*679 proc_unit_mult_31_I2_n81
*680 proc_unit_mult_31_I2_n80
*681 proc_unit_mult_31_I2_n79
*682 proc_unit_mult_31_I2_n78
*683 proc_unit_mult_31_I2_n77
*684 proc_unit_mult_31_I2_n76
*685 proc_unit_mult_31_I2_n75
*686 proc_unit_mult_31_I2_n74
*687 proc_unit_mult_31_I2_n73
*688 proc_unit_mult_31_I2_n72
*689 proc_unit_mult_31_I2_n71
*690 proc_unit_mult_31_I2_n70
*691 proc_unit_mult_31_I2_n69
*692 proc_unit_mult_31_I2_n68
*693 proc_unit_mult_31_I2_n67
*694 proc_unit_mult_31_I2_n66
*695 proc_unit_mult_31_I2_n65
*696 proc_unit_mult_31_I2_n64
*697 proc_unit_mult_31_I2_n63
*698 proc_unit_mult_31_I2_n62
*699 proc_unit_mult_31_I2_n61
*700 proc_unit_mult_31_I2_n60
*701 proc_unit_mult_31_I2_n59
*702 proc_unit_mult_31_I2_n58
*703 proc_unit_mult_31_I2_n57
*704 proc_unit_mult_31_I2_n56
*705 proc_unit_mult_31_I2_n55
*706 proc_unit_mult_31_I2_n54
*707 proc_unit_mult_31_I2_n53
*708 proc_unit_mult_31_I2_n52
*709 proc_unit_mult_31_I2_n51
*710 proc_unit_mult_31_I2_n50
*711 proc_unit_mult_31_I2_n49
*712 proc_unit_mult_31_I2_n48
*713 proc_unit_mult_31_I2_n47
*714 proc_unit_mult_31_I2_n46
*715 proc_unit_mult_31_I2_n45
*716 proc_unit_mult_31_I2_n44
*717 proc_unit_mult_31_I2_n43
*718 proc_unit_mult_31_I2_n42
*719 proc_unit_mult_31_I2_n41
*720 proc_unit_mult_31_I2_n40
*721 proc_unit_mult_31_I2_n39
*722 proc_unit_mult_31_I2_n38
*723 proc_unit_mult_31_I2_n37
*724 proc_unit_mult_31_I2_n36
*725 proc_unit_mult_31_I2_n35
*726 proc_unit_mult_31_I2_n34
*727 proc_unit_mult_31_I2_n33
*728 proc_unit_mult_31_I2_n32
*729 proc_unit_mult_31_I2_n31
*730 proc_unit_mult_31_I2_n30
*731 proc_unit_mult_31_I2_n29
*732 proc_unit_mult_31_I2_n28
*733 proc_unit_mult_31_I2_n27
*734 proc_unit_mult_31_I2_n26
*735 proc_unit_mult_31_I2_n25
*736 proc_unit_mult_31_I2_n24
*737 proc_unit_mult_31_I2_n23
*738 proc_unit_mult_31_I2_n22
*739 proc_unit_mult_31_I2_n21
*740 proc_unit_mult_31_I2_n20
*741 proc_unit_mult_31_I2_n19
*742 proc_unit_mult_31_I2_n18
*743 proc_unit_mult_31_I2_n17
*744 proc_unit_mult_31_I2_n16
*745 proc_unit_mult_31_I2_n15
*746 proc_unit_mult_31_I2_n14
*747 proc_unit_mult_31_I2_n13
*748 proc_unit_mult_31_I2_n12
*749 proc_unit_mult_31_I2_n11
*750 proc_unit_mult_31_I2_n10
*751 proc_unit_mult_31_I2_n9
*752 proc_unit_mult_31_I2_n8
*753 proc_unit_mult_31_I2_n7
*754 proc_unit_mult_31_I2_n6
*755 proc_unit_mult_31_I2_n5
*756 proc_unit_mult_31_I2_n4
*757 proc_unit_mult_31_I2_n3
*758 proc_unit_mult_31_I2_n2
*759 proc_unit_mult_31_I2_n1
*760 proc_unit_mult_31_I3_n183
*761 proc_unit_mult_31_I3_n182
*762 proc_unit_mult_31_I3_n181
*763 proc_unit_mult_31_I3_n180
*764 proc_unit_mult_31_I3_n179
*765 proc_unit_mult_31_I3_n178
*766 proc_unit_mult_31_I3_n177
*767 proc_unit_mult_31_I3_n120
*768 proc_unit_mult_31_I3_n119
*769 proc_unit_mult_31_I3_n118
*770 proc_unit_mult_31_I3_n117
*771 proc_unit_mult_31_I3_n116
*772 proc_unit_mult_31_I3_n115
*773 proc_unit_mult_31_I3_n114
*774 proc_unit_mult_31_I3_n113
*775 proc_unit_mult_31_I3_n112
*776 proc_unit_mult_31_I3_n111
*777 proc_unit_mult_31_I3_n110
*778 proc_unit_mult_31_I3_n109
*779 proc_unit_mult_31_I3_n108
*780 proc_unit_mult_31_I3_n107
*781 proc_unit_mult_31_I3_n106
*782 proc_unit_mult_31_I3_n105
*783 proc_unit_mult_31_I3_n104
*784 proc_unit_mult_31_I3_n103
*785 proc_unit_mult_31_I3_n102
*786 proc_unit_mult_31_I3_n101
*787 proc_unit_mult_31_I3_n100
*788 proc_unit_mult_31_I3_n99
*789 proc_unit_mult_31_I3_n98
*790 proc_unit_mult_31_I3_n97
*791 proc_unit_mult_31_I3_n96
*792 proc_unit_mult_31_I3_n95
*793 proc_unit_mult_31_I3_n94
*794 proc_unit_mult_31_I3_n93
*795 proc_unit_mult_31_I3_n92
*796 proc_unit_mult_31_I3_n91
*797 proc_unit_mult_31_I3_n90
*798 proc_unit_mult_31_I3_n89
*799 proc_unit_mult_31_I3_n88
*800 proc_unit_mult_31_I3_n87
*801 proc_unit_mult_31_I3_n86
*802 proc_unit_mult_31_I3_n85
*803 proc_unit_mult_31_I3_n84
*804 proc_unit_mult_31_I3_n83
*805 proc_unit_mult_31_I3_n82
*806 proc_unit_mult_31_I3_n81
*807 proc_unit_mult_31_I3_n80
*808 proc_unit_mult_31_I3_n79
*809 proc_unit_mult_31_I3_n78
*810 proc_unit_mult_31_I3_n77
*811 proc_unit_mult_31_I3_n76
*812 proc_unit_mult_31_I3_n75
*813 proc_unit_mult_31_I3_n74
*814 proc_unit_mult_31_I3_n73
*815 proc_unit_mult_31_I3_n72
*816 proc_unit_mult_31_I3_n71
*817 proc_unit_mult_31_I3_n70
*818 proc_unit_mult_31_I3_n69
*819 proc_unit_mult_31_I3_n68
*820 proc_unit_mult_31_I3_n67
*821 proc_unit_mult_31_I3_n66
*822 proc_unit_mult_31_I3_n65
*823 proc_unit_mult_31_I3_n64
*824 proc_unit_mult_31_I3_n63
*825 proc_unit_mult_31_I3_n62
*826 proc_unit_mult_31_I3_n61
*827 proc_unit_mult_31_I3_n60
*828 proc_unit_mult_31_I3_n59
*829 proc_unit_mult_31_I3_n58
*830 proc_unit_mult_31_I3_n57
*831 proc_unit_mult_31_I3_n56
*832 proc_unit_mult_31_I3_n55
*833 proc_unit_mult_31_I3_n54
*834 proc_unit_mult_31_I3_n53
*835 proc_unit_mult_31_I3_n52
*836 proc_unit_mult_31_I3_n51
*837 proc_unit_mult_31_I3_n50
*838 proc_unit_mult_31_I3_n49
*839 proc_unit_mult_31_I3_n48
*840 proc_unit_mult_31_I3_n47
*841 proc_unit_mult_31_I3_n46
*842 proc_unit_mult_31_I3_n45
*843 proc_unit_mult_31_I3_n44
*844 proc_unit_mult_31_I3_n43
*845 proc_unit_mult_31_I3_n42
*846 proc_unit_mult_31_I3_n41
*847 proc_unit_mult_31_I3_n40
*848 proc_unit_mult_31_I3_n39
*849 proc_unit_mult_31_I3_n38
*850 proc_unit_mult_31_I3_n37
*851 proc_unit_mult_31_I3_n36
*852 proc_unit_mult_31_I3_n35
*853 proc_unit_mult_31_I3_n34
*854 proc_unit_mult_31_I3_n33
*855 proc_unit_mult_31_I3_n32
*856 proc_unit_mult_31_I3_n31
*857 proc_unit_mult_31_I3_n30
*858 proc_unit_mult_31_I3_n29
*859 proc_unit_mult_31_I3_n28
*860 proc_unit_mult_31_I3_n27
*861 proc_unit_mult_31_I3_n26
*862 proc_unit_mult_31_I3_n25
*863 proc_unit_mult_31_I3_n24
*864 proc_unit_mult_31_I3_n23
*865 proc_unit_mult_31_I3_n22
*866 proc_unit_mult_31_I3_n21
*867 proc_unit_mult_31_I3_n20
*868 proc_unit_mult_31_I3_n19
*869 proc_unit_mult_31_I3_n18
*870 proc_unit_mult_31_I3_n17
*871 proc_unit_mult_31_I3_n16
*872 proc_unit_mult_31_I3_n15
*873 proc_unit_mult_31_I3_n14
*874 proc_unit_mult_31_I3_n13
*875 proc_unit_mult_31_I3_n12
*876 proc_unit_mult_31_I3_n11
*877 proc_unit_mult_31_I3_n10
*878 proc_unit_mult_31_I3_n9
*879 proc_unit_mult_31_I3_n8
*880 proc_unit_mult_31_I3_n7
*881 proc_unit_mult_31_I3_n6
*882 proc_unit_mult_31_I3_n5
*883 proc_unit_mult_31_I3_n4
*884 proc_unit_mult_31_I3_n3
*885 proc_unit_mult_31_I3_n2
*886 proc_unit_mult_31_I3_n1
*887 proc_unit_mult_31_I4_n183
*888 proc_unit_mult_31_I4_n182
*889 proc_unit_mult_31_I4_n181
*890 proc_unit_mult_31_I4_n180
*891 proc_unit_mult_31_I4_n179
*892 proc_unit_mult_31_I4_n178
*893 proc_unit_mult_31_I4_n177
*894 proc_unit_mult_31_I4_n120
*895 proc_unit_mult_31_I4_n119
*896 proc_unit_mult_31_I4_n118
*897 proc_unit_mult_31_I4_n117
*898 proc_unit_mult_31_I4_n116
*899 proc_unit_mult_31_I4_n115
*900 proc_unit_mult_31_I4_n114
*901 proc_unit_mult_31_I4_n113
*902 proc_unit_mult_31_I4_n112
*903 proc_unit_mult_31_I4_n111
*904 proc_unit_mult_31_I4_n110
*905 proc_unit_mult_31_I4_n109
*906 proc_unit_mult_31_I4_n108
*907 proc_unit_mult_31_I4_n107
*908 proc_unit_mult_31_I4_n106
*909 proc_unit_mult_31_I4_n105
*910 proc_unit_mult_31_I4_n104
*911 proc_unit_mult_31_I4_n103
*912 proc_unit_mult_31_I4_n102
*913 proc_unit_mult_31_I4_n101
*914 proc_unit_mult_31_I4_n100
*915 proc_unit_mult_31_I4_n99
*916 proc_unit_mult_31_I4_n98
*917 proc_unit_mult_31_I4_n97
*918 proc_unit_mult_31_I4_n96
*919 proc_unit_mult_31_I4_n95
*920 proc_unit_mult_31_I4_n94
*921 proc_unit_mult_31_I4_n93
*922 proc_unit_mult_31_I4_n92
*923 proc_unit_mult_31_I4_n91
*924 proc_unit_mult_31_I4_n90
*925 proc_unit_mult_31_I4_n89
*926 proc_unit_mult_31_I4_n88
*927 proc_unit_mult_31_I4_n87
*928 proc_unit_mult_31_I4_n86
*929 proc_unit_mult_31_I4_n85
*930 proc_unit_mult_31_I4_n84
*931 proc_unit_mult_31_I4_n83
*932 proc_unit_mult_31_I4_n82
*933 proc_unit_mult_31_I4_n81
*934 proc_unit_mult_31_I4_n80
*935 proc_unit_mult_31_I4_n79
*936 proc_unit_mult_31_I4_n78
*937 proc_unit_mult_31_I4_n77
*938 proc_unit_mult_31_I4_n76
*939 proc_unit_mult_31_I4_n75
*940 proc_unit_mult_31_I4_n74
*941 proc_unit_mult_31_I4_n73
*942 proc_unit_mult_31_I4_n72
*943 proc_unit_mult_31_I4_n71
*944 proc_unit_mult_31_I4_n70
*945 proc_unit_mult_31_I4_n69
*946 proc_unit_mult_31_I4_n68
*947 proc_unit_mult_31_I4_n67
*948 proc_unit_mult_31_I4_n66
*949 proc_unit_mult_31_I4_n65
*950 proc_unit_mult_31_I4_n64
*951 proc_unit_mult_31_I4_n63
*952 proc_unit_mult_31_I4_n62
*953 proc_unit_mult_31_I4_n61
*954 proc_unit_mult_31_I4_n60
*955 proc_unit_mult_31_I4_n59
*956 proc_unit_mult_31_I4_n58
*957 proc_unit_mult_31_I4_n57
*958 proc_unit_mult_31_I4_n56
*959 proc_unit_mult_31_I4_n55
*960 proc_unit_mult_31_I4_n54
*961 proc_unit_mult_31_I4_n53
*962 proc_unit_mult_31_I4_n52
*963 proc_unit_mult_31_I4_n51
*964 proc_unit_mult_31_I4_n50
*965 proc_unit_mult_31_I4_n49
*966 proc_unit_mult_31_I4_n48
*967 proc_unit_mult_31_I4_n47
*968 proc_unit_mult_31_I4_n46
*969 proc_unit_mult_31_I4_n45
*970 proc_unit_mult_31_I4_n44
*971 proc_unit_mult_31_I4_n43
*972 proc_unit_mult_31_I4_n42
*973 proc_unit_mult_31_I4_n41
*974 proc_unit_mult_31_I4_n40
*975 proc_unit_mult_31_I4_n39
*976 proc_unit_mult_31_I4_n38
*977 proc_unit_mult_31_I4_n37
*978 proc_unit_mult_31_I4_n36
*979 proc_unit_mult_31_I4_n35
*980 proc_unit_mult_31_I4_n34
*981 proc_unit_mult_31_I4_n33
*982 proc_unit_mult_31_I4_n32
*983 proc_unit_mult_31_I4_n31
*984 proc_unit_mult_31_I4_n30
*985 proc_unit_mult_31_I4_n29
*986 proc_unit_mult_31_I4_n28
*987 proc_unit_mult_31_I4_n27
*988 proc_unit_mult_31_I4_n26
*989 proc_unit_mult_31_I4_n25
*990 proc_unit_mult_31_I4_n24
*991 proc_unit_mult_31_I4_n23
*992 proc_unit_mult_31_I4_n22
*993 proc_unit_mult_31_I4_n21
*994 proc_unit_mult_31_I4_n20
*995 proc_unit_mult_31_I4_n19
*996 proc_unit_mult_31_I4_n18
*997 proc_unit_mult_31_I4_n17
*998 proc_unit_mult_31_I4_n16
*999 proc_unit_mult_31_I4_n15
*1000 proc_unit_mult_31_I4_n14
*1001 proc_unit_mult_31_I4_n13
*1002 proc_unit_mult_31_I4_n12
*1003 proc_unit_mult_31_I4_n11
*1004 proc_unit_mult_31_I4_n10
*1005 proc_unit_mult_31_I4_n9
*1006 proc_unit_mult_31_I4_n8
*1007 proc_unit_mult_31_I4_n7
*1008 proc_unit_mult_31_I4_n6
*1009 proc_unit_mult_31_I4_n5
*1010 proc_unit_mult_31_I4_n4
*1011 proc_unit_mult_31_I4_n3
*1012 proc_unit_mult_31_I4_n2
*1013 proc_unit_mult_31_I4_n1
*1014 proc_unit_mult_31_I5_n190
*1015 proc_unit_mult_31_I5_n189
*1016 proc_unit_mult_31_I5_n188
*1017 proc_unit_mult_31_I5_n187
*1018 proc_unit_mult_31_I5_n186
*1019 proc_unit_mult_31_I5_n185
*1020 proc_unit_mult_31_I5_n184
*1021 proc_unit_mult_31_I5_n183
*1022 proc_unit_mult_31_I5_n182
*1023 proc_unit_mult_31_I5_n181
*1024 proc_unit_mult_31_I5_n180
*1025 proc_unit_mult_31_I5_n179
*1026 proc_unit_mult_31_I5_n178
*1027 proc_unit_mult_31_I5_n177
*1028 proc_unit_mult_31_I5_n120
*1029 proc_unit_mult_31_I5_n119
*1030 proc_unit_mult_31_I5_n118
*1031 proc_unit_mult_31_I5_n117
*1032 proc_unit_mult_31_I5_n116
*1033 proc_unit_mult_31_I5_n115
*1034 proc_unit_mult_31_I5_n114
*1035 proc_unit_mult_31_I5_n113
*1036 proc_unit_mult_31_I5_n112
*1037 proc_unit_mult_31_I5_n111
*1038 proc_unit_mult_31_I5_n110
*1039 proc_unit_mult_31_I5_n109
*1040 proc_unit_mult_31_I5_n108
*1041 proc_unit_mult_31_I5_n107
*1042 proc_unit_mult_31_I5_n106
*1043 proc_unit_mult_31_I5_n105
*1044 proc_unit_mult_31_I5_n104
*1045 proc_unit_mult_31_I5_n103
*1046 proc_unit_mult_31_I5_n102
*1047 proc_unit_mult_31_I5_n101
*1048 proc_unit_mult_31_I5_n100
*1049 proc_unit_mult_31_I5_n99
*1050 proc_unit_mult_31_I5_n98
*1051 proc_unit_mult_31_I5_n97
*1052 proc_unit_mult_31_I5_n96
*1053 proc_unit_mult_31_I5_n95
*1054 proc_unit_mult_31_I5_n94
*1055 proc_unit_mult_31_I5_n93
*1056 proc_unit_mult_31_I5_n92
*1057 proc_unit_mult_31_I5_n91
*1058 proc_unit_mult_31_I5_n90
*1059 proc_unit_mult_31_I5_n89
*1060 proc_unit_mult_31_I5_n88
*1061 proc_unit_mult_31_I5_n87
*1062 proc_unit_mult_31_I5_n86
*1063 proc_unit_mult_31_I5_n85
*1064 proc_unit_mult_31_I5_n84
*1065 proc_unit_mult_31_I5_n83
*1066 proc_unit_mult_31_I5_n82
*1067 proc_unit_mult_31_I5_n81
*1068 proc_unit_mult_31_I5_n80
*1069 proc_unit_mult_31_I5_n79
*1070 proc_unit_mult_31_I5_n78
*1071 proc_unit_mult_31_I5_n77
*1072 proc_unit_mult_31_I5_n76
*1073 proc_unit_mult_31_I5_n75
*1074 proc_unit_mult_31_I5_n74
*1075 proc_unit_mult_31_I5_n73
*1076 proc_unit_mult_31_I5_n72
*1077 proc_unit_mult_31_I5_n71
*1078 proc_unit_mult_31_I5_n70
*1079 proc_unit_mult_31_I5_n69
*1080 proc_unit_mult_31_I5_n68
*1081 proc_unit_mult_31_I5_n67
*1082 proc_unit_mult_31_I5_n66
*1083 proc_unit_mult_31_I5_n65
*1084 proc_unit_mult_31_I5_n64
*1085 proc_unit_mult_31_I5_n63
*1086 proc_unit_mult_31_I5_n62
*1087 proc_unit_mult_31_I5_n61
*1088 proc_unit_mult_31_I5_n60
*1089 proc_unit_mult_31_I5_n59
*1090 proc_unit_mult_31_I5_n58
*1091 proc_unit_mult_31_I5_n57
*1092 proc_unit_mult_31_I5_n56
*1093 proc_unit_mult_31_I5_n55
*1094 proc_unit_mult_31_I5_n54
*1095 proc_unit_mult_31_I5_n53
*1096 proc_unit_mult_31_I5_n52
*1097 proc_unit_mult_31_I5_n51
*1098 proc_unit_mult_31_I5_n50
*1099 proc_unit_mult_31_I5_n49
*1100 proc_unit_mult_31_I5_n48
*1101 proc_unit_mult_31_I5_n47
*1102 proc_unit_mult_31_I5_n46
*1103 proc_unit_mult_31_I5_n45
*1104 proc_unit_mult_31_I5_n44
*1105 proc_unit_mult_31_I5_n43
*1106 proc_unit_mult_31_I5_n42
*1107 proc_unit_mult_31_I5_n41
*1108 proc_unit_mult_31_I5_n40
*1109 proc_unit_mult_31_I5_n39
*1110 proc_unit_mult_31_I5_n38
*1111 proc_unit_mult_31_I5_n37
*1112 proc_unit_mult_31_I5_n36
*1113 proc_unit_mult_31_I5_n35
*1114 proc_unit_mult_31_I5_n34
*1115 proc_unit_mult_31_I5_n33
*1116 proc_unit_mult_31_I5_n32
*1117 proc_unit_mult_31_I5_n31
*1118 proc_unit_mult_31_I5_n30
*1119 proc_unit_mult_31_I5_n29
*1120 proc_unit_mult_31_I5_n28
*1121 proc_unit_mult_31_I5_n27
*1122 proc_unit_mult_31_I5_n26
*1123 proc_unit_mult_31_I5_n25
*1124 proc_unit_mult_31_I5_n24
*1125 proc_unit_mult_31_I5_n23
*1126 proc_unit_mult_31_I5_n22
*1127 proc_unit_mult_31_I5_n21
*1128 proc_unit_mult_31_I5_n20
*1129 proc_unit_mult_31_I5_n19
*1130 proc_unit_mult_31_I5_n18
*1131 proc_unit_mult_31_I5_n17
*1132 proc_unit_mult_31_I5_n16
*1133 proc_unit_mult_31_I5_n15
*1134 proc_unit_mult_31_I5_n14
*1135 proc_unit_mult_31_I5_n13
*1136 proc_unit_mult_31_I5_n12
*1137 proc_unit_mult_31_I5_n11
*1138 proc_unit_mult_31_I5_n10
*1139 proc_unit_mult_31_I5_n9
*1140 proc_unit_mult_31_I5_n8
*1141 proc_unit_mult_31_I5_n7
*1142 proc_unit_mult_31_I5_n6
*1143 proc_unit_mult_31_I5_n5
*1144 proc_unit_mult_31_I5_n4
*1145 proc_unit_mult_31_I5_n3
*1146 proc_unit_mult_31_I5_n2
*1147 proc_unit_mult_31_I5_n1
*1148 proc_unit_mult_31_I6_n183
*1149 proc_unit_mult_31_I6_n182
*1150 proc_unit_mult_31_I6_n181
*1151 proc_unit_mult_31_I6_n180
*1152 proc_unit_mult_31_I6_n179
*1153 proc_unit_mult_31_I6_n178
*1154 proc_unit_mult_31_I6_n177
*1155 proc_unit_mult_31_I6_n120
*1156 proc_unit_mult_31_I6_n119
*1157 proc_unit_mult_31_I6_n118
*1158 proc_unit_mult_31_I6_n117
*1159 proc_unit_mult_31_I6_n116
*1160 proc_unit_mult_31_I6_n115
*1161 proc_unit_mult_31_I6_n114
*1162 proc_unit_mult_31_I6_n113
*1163 proc_unit_mult_31_I6_n112
*1164 proc_unit_mult_31_I6_n111
*1165 proc_unit_mult_31_I6_n110
*1166 proc_unit_mult_31_I6_n109
*1167 proc_unit_mult_31_I6_n108
*1168 proc_unit_mult_31_I6_n107
*1169 proc_unit_mult_31_I6_n106
*1170 proc_unit_mult_31_I6_n105
*1171 proc_unit_mult_31_I6_n104
*1172 proc_unit_mult_31_I6_n103
*1173 proc_unit_mult_31_I6_n102
*1174 proc_unit_mult_31_I6_n101
*1175 proc_unit_mult_31_I6_n100
*1176 proc_unit_mult_31_I6_n99
*1177 proc_unit_mult_31_I6_n98
*1178 proc_unit_mult_31_I6_n97
*1179 proc_unit_mult_31_I6_n96
*1180 proc_unit_mult_31_I6_n95
*1181 proc_unit_mult_31_I6_n94
*1182 proc_unit_mult_31_I6_n93
*1183 proc_unit_mult_31_I6_n92
*1184 proc_unit_mult_31_I6_n91
*1185 proc_unit_mult_31_I6_n90
*1186 proc_unit_mult_31_I6_n89
*1187 proc_unit_mult_31_I6_n88
*1188 proc_unit_mult_31_I6_n87
*1189 proc_unit_mult_31_I6_n86
*1190 proc_unit_mult_31_I6_n85
*1191 proc_unit_mult_31_I6_n84
*1192 proc_unit_mult_31_I6_n83
*1193 proc_unit_mult_31_I6_n82
*1194 proc_unit_mult_31_I6_n81
*1195 proc_unit_mult_31_I6_n80
*1196 proc_unit_mult_31_I6_n79
*1197 proc_unit_mult_31_I6_n78
*1198 proc_unit_mult_31_I6_n77
*1199 proc_unit_mult_31_I6_n76
*1200 proc_unit_mult_31_I6_n75
*1201 proc_unit_mult_31_I6_n74
*1202 proc_unit_mult_31_I6_n73
*1203 proc_unit_mult_31_I6_n72
*1204 proc_unit_mult_31_I6_n71
*1205 proc_unit_mult_31_I6_n70
*1206 proc_unit_mult_31_I6_n69
*1207 proc_unit_mult_31_I6_n68